/*--------------------------------*- C++ -*----------------------------------*\
| =========                 |                                                 |
| \\      /  F ield         | foam-extend: Open Source CFD                    |
|  \\    /   O peration     | Version:     3.2                                |
|   \\  /    A nd           | Web:         http://www.foam-extend.org         |
|    \\/     M anipulation  | For copyright notice see file Copyright         |
\*---------------------------------------------------------------------------*/
FoamFile
{
    version     2.0;
    format      ascii;
    class       wordList;
    location    "constant/polyMesh";
    object      zoneToPatchName;
}
// * * * * * * * * * * * * * * * * * * * * * * * * * * * * * * * * * * * * * //


11
(
unknown
unknown
unknown
unknown
int_FLUID
INLET
ROT_AXIS
WALL_BOTTOM
OUTLET_RIGHT
OUTLET_TOP
WALL_JET
)


// ************************************************************************* //
