/*--------------------------------*- C++ -*----------------------------------*\
| =========                 |                                                 |
| \\      /  F ield         | OpenFOAM Extend Project: Open Source CFD        |
|  \\    /   O peration     | Version:  1.6-ext                               |
|   \\  /    A nd           | Web:      www.extend-project.de                 |
|    \\/     M anipulation  |                                                 |
\*---------------------------------------------------------------------------*/
FoamFile
{
    version     2.0;
    format      ascii;
    class       dictionary;
    object      fvSolution;
}
// * * * * * * * * * * * * * * * * * * * * * * * * * * * * * * * * * * * * * //

solvers
{
    p
    {
        solver           PCG;
        preconditioner   DIC;
        tolerance        1e-11;
        relTol           0.0;
        maxIter          300;
    };
    pFinal
    {
        solver           PCG;
        preconditioner   DIC;
        tolerance        1e-12;
        relTol           0.0;
        maxIter          500;
    };
    "(U|UFinal)"
    {
        solver           PBiCG;
        preconditioner   DILU;
        tolerance        1e-11;
        relTol           0.00;
        maxIter          100;
    };
    "(k|epsilon|tpphi|tppsi)"
    {
        solver           smoothSolver;
        smoother         GaussSeidel;
        tolerance        1e-11;
        relTol           0.0;
        nSweeps          2;
    };
    R
    {
        solver           PBiCG;
        preconditioner   DILU;
        tolerance        1e-10;
        relTol           0.0;
    };
}

PIMPLE
{
    nOuterCorrectors    2;
    nCorrectors         2;
    nNonOrthogonalCorrectors 0;
    correctPhi          false;
    pRefPoint (0.0 0.0 0.0);
    pRefValue 13.4;
}

relaxationFactors
{
    p               0.7;
    U               0.8;
    k               0.8;
    epsilon         0.8;
    R               0.8;
    tpphi           0.8;
    tppsi           0.8;
}

cache
{
    grad(U);
}

// ************************************************************************* //
