/*--------------------------------*- C++ -*----------------------------------*\
| =========                 |                                                 |
| \\      /  F ield         | OpenFOAM Extend Project: Open source CFD        |
|  \\    /   O peration     | Version:  1.6-ext                               |
|   \\  /    A nd           | Web:      www.extend-project.de                 |
|    \\/     M anipulation  |                                                 |
\*---------------------------------------------------------------------------*/
FoamFile
{
    version     2.0;
    format      ascii;
    class       volScalarField;
    location    "0";
    object      nut;
}
// * * * * * * * * * * * * * * * * * * * * * * * * * * * * * * * * * * * * * //
dimensions      [0 2 -1 0 0 0 0];
internalField   uniform 1.455e-04; 
boundaryField
{
	INLET
	{
		type groovyBC ;
		value $internalField;

		lookuptables (
		{
			name nutdata;
			outOfBounds clamp;
			fileName "$FOAM_CASE/data/nut.csv";
		}
		);
        interpolate true;
		interpolationType cellPoint;
		valueExpression "nutdata(pos().x)";
	} 
	
	OUTLET_TOP
	{
		type zeroGradient;
	}

	OUTLET_RIGHT
	{
		type zeroGradient;
	}
	
    WALL_BOTTOM
    {
        type            fixedValue;
        value           uniform 1e-10;
    }
	
    WALL_JET
    {
     	type            fixedValue;
        value           uniform 1e-10;
    }
	
    ROT_AXIS{
		type	empty;
	}		
	
    ROT_WALL_FORE{
		type	wedge;
	}
	
	ROT_WALL_AFT{
		type	wedge;
	}
}
// ************************************************************************* //
